53
 energy: -77.979448093699 gnorm: 0.000348941381 xtb: 6.5.1 (579679a)
C           -0.14264063820163        0.00003390858152       -0.22397387175500
C           -0.10574381236811        0.00003060218594        1.24881822379216
N            1.07974308288813        0.00001600107175       -0.81301192398583
O           -1.19453999312352        0.00005874252518       -0.84147909301368
C           -1.27196417534592       -0.00002454240682        2.07866530830564
C           -0.81091225730071        0.00003152259921        3.41762794010897
N            0.55506087873886       -0.00000614402006        3.40681797650556
C            0.96781070017009        0.00002078735111        2.10987299676421
H            2.01720039778184        0.00006450441822        1.88603282006797
C            1.34649805845927       -0.00002571834819        4.61559612752248
N           -1.57212363976227        0.00000505232776        4.50322132677611
C           -2.64808103529886       -0.00004619993687        1.87164775405058
C           -3.44841214446037        0.00002025100049        2.99811632960871
C           -2.87258414190144       -0.00055908814741        4.27085974317205
H           -3.05214766017235       -0.00042006338221        0.87167799775909
H           -4.52351005389885        0.00000282215011        2.90615697796710
H           -3.49532044943587        0.00072524867575        5.15545790274778
H            1.87897113773032        0.00000659332206       -0.20788694588843
C            1.32414406540394        0.00001217226301       -2.25089354524025
C            2.81321621827699        0.00001031410747       -2.57159580685714
C            0.67923896444326       -1.26404572760739       -2.84200873864385
C            0.67923784450681        1.26406589385569       -2.84201591046918
H            0.78114941745522       -1.28955866541682       -3.92195695579277
H            1.15132272176930       -2.15103319737529       -2.42357941006025
H           -0.37694304923102       -1.27189875373850       -2.58808445555582
H            0.78114755815379        1.28957637815225       -3.92196411973280
H           -0.37694434321448        1.27191600757159       -2.58809186520771
H            1.15131946035833        2.15105544124564       -2.42358845680515
C            3.19029605700234        0.00001047391676       -3.91418003322979
C            4.51822434248796        0.00001049335017       -4.29437616839396
C            5.51802225342998        0.00001049651201       -3.33719584309058
C            5.16500264764796        0.00000793227590       -2.00195958295420
C            3.83108960815108        0.00000773364315       -1.62583464410273
H            2.43467369192919        0.00001050243662       -4.68433851566457
H            4.77324300601097        0.00001075412728       -5.34393001521072
H            6.55743931310187        0.00001055334333       -3.62863361619235
H            5.93042781311647        0.00000638048715       -1.23931799319018
H            3.62363021597374        0.00000473530814       -0.56506128607485
C            2.84819227267884       -0.00001648024822        4.35686042545807
H            1.06532391836788        0.88173584837974        5.20250220566776
H            1.06531442911304       -0.88177502494213        5.20251331475214
C            3.63676663880559       -0.00001032461398        5.66484213122532
H            3.11981789874847       -0.88644918903420        3.77922443948226
H            3.11980549796702        0.88642687547982        3.77923395930943
C            5.13993902227829       -0.00000270433489        5.40012629082682
H            3.36963872705575        0.88171011657732        6.25091594302823
H            3.36964499239717       -0.88173186344849        6.25091655186363
C            5.93554807048792       -0.00000254996698        6.69721578241542
H            5.41701905683343       -0.88260311629397        4.81973678655166
H            5.41701330730391        0.88260170278006        4.81973979294280
F            7.28197240028979        0.00000039791271        6.42484160200834
H            5.73537871510056        0.89618528063176        7.29367917867134
H            5.73538199129923       -0.89619316730372        7.29367596776097
